OPT_V10/Two_days_first_run/powerflow_results_t38.txt
Pandapower Network Debug Info
==================================================

BUS:
       vm_pu  va_degree      p_mw    q_mvar
0   0.997173   0.329750 -0.001056  0.001094
1   0.995920   0.528764 -0.001304  0.001947
2   0.994210   0.678818 -0.000224  0.002692
3   0.994530   0.502098  0.000278  0.004684
4   0.993446   0.365449  0.000676  0.004700
5   0.996277   0.261923  0.001348  0.004868
6   0.996801   0.362064 -0.001341  0.000948
7   0.999325   0.087489 -0.000601  0.001723
8   0.998775   0.072264 -0.000328  0.002633
9   0.999857   0.002744  0.005186  0.008605
10  0.999861   0.002653  0.009601  0.010555
11  0.999875   0.002439  0.010179  0.012815
12  0.999823   0.002563  0.009081  0.005326
13  0.999798   0.002740  0.010249  0.010251
14  0.999807   0.002677  0.012426  0.009942
15  0.999945   0.001448  0.000000  0.000000
16  0.999945   0.001454  0.000000  0.000000
17  0.999828   0.002598  0.000000  0.000000
18  0.999828   0.002607  0.000000  0.000000
19  1.000000   0.000000 -0.022774 -0.047465
20  1.000000   0.000007  0.000000  0.000000
21  1.000000   0.000000 -0.031607 -0.045450
22  1.000000   0.000006  0.000000  0.000000
--------------------------------------------------

LINE:
    p_from_mw  q_from_mvar   p_to_mw  q_to_mvar         pl_mw       ql_mvar  i_from_ka   i_to_ka      i_ka  vm_from_pu  va_from_degree  vm_to_pu  va_to_degree  loading_percent
0    0.022764     0.043465 -0.022762  -0.043463  2.354796e-06  1.836073e-06   0.001889  0.001889  0.001889    1.000000        0.000007  0.999945      0.001448         0.821104
1    0.031597     0.041450 -0.031589  -0.041445  7.306975e-06  5.697369e-06   0.002006  0.002006  0.002006    1.000000        0.000006  0.999828      0.002598         0.872215
2    0.024968     0.031977 -0.024966  -0.031975  2.277042e-06  1.775447e-06   0.001562  0.001562  0.001562    0.999945        0.001448  0.999875      0.002439         0.678968
3    0.009081     0.005326 -0.009081  -0.005326  3.834126e-08  2.989531e-08   0.000405  0.000405  0.000405    0.999828        0.002598  0.999823      0.002563         0.176209
4    0.022675     0.020194 -0.022675  -0.020194  5.043019e-07  3.932125e-07   0.001169  0.001169  0.001169    0.999828        0.002598  0.999807      0.002677         0.508223
5   -0.002216     0.010487  0.002270  -0.010445  5.374183e-05  4.190339e-05   0.015472  0.015472  0.015472    0.999945        0.001454  0.997173      0.329750         6.726893
6    0.000036     0.005839 -0.000010  -0.005819  2.646213e-05  2.063296e-05   0.008430  0.008430  0.008430    0.999828        0.002607  0.996277      0.261923         3.665087
7   -0.000599     0.001724  0.000601  -0.001723  2.251446e-06  1.755490e-06   0.002635  0.002635  0.002635    0.999828        0.002607  0.999325      0.087489         1.145606
8    0.000385     0.007361 -0.000376  -0.007354  9.346273e-06  7.287443e-06   0.010642  0.010642  0.010642    0.999828        0.002607  0.998775      0.072264         4.626851
9    0.005186     0.008605 -0.005186  -0.008605  3.491439e-08  2.722332e-08   0.000387  0.000387  0.000387    0.999861        0.002653  0.999857      0.002744         0.168150
10   0.014787     0.019159 -0.014786  -0.019159  2.865310e-07  2.234129e-07   0.000932  0.000932  0.000932    0.999875        0.002439  0.999861      0.002653         0.405063
11   0.010249     0.010251 -0.010249  -0.010251  1.028101e-07  8.016272e-08   0.000558  0.000558  0.000558    0.999807        0.002677  0.999798      0.002740         0.242635
12   0.001521    -0.004644 -0.001507   0.004655  1.424659e-05  1.110830e-05   0.007083  0.007083  0.007083    0.995920        0.528764  0.997173      0.329750         3.079525
13  -0.000278    -0.004684  0.000293   0.004696  1.486475e-05  1.159029e-05   0.006810  0.006810  0.006810    0.994530        0.502098  0.997173      0.329750         2.961043
14   0.000224    -0.002692 -0.000218   0.002697  6.677236e-06  5.206351e-06   0.003921  0.003921  0.003921    0.994210        0.678818  0.995920      0.528764         1.704995
15   0.000704     0.004722 -0.000676  -0.004700  2.779659e-05  2.167346e-05   0.006899  0.006899  0.006899    0.998775        0.072264  0.993446      0.365449         2.999480
16   0.001341    -0.000948 -0.001338   0.000950  2.362925e-06  1.842411e-06   0.002378  0.002378  0.002378    0.996801        0.362064  0.996277      0.261923         1.033860
--------------------------------------------------

TRAFO:
    p_hv_mw  q_hv_mvar   p_lv_mw  q_lv_mvar    pl_mw  ql_mvar   i_hv_ka   i_lv_ka  vm_hv_pu  va_hv_degree  vm_lv_pu  va_lv_degree  loading_percent
0 -0.002206   0.011487  0.002216  -0.010487  0.00001    0.001  0.000450  0.015472  0.999945      0.001448  0.999945      0.001454         0.116974
1 -0.000167   0.015925  0.000177  -0.014925  0.00001    0.001  0.000613  0.021547  0.999828      0.002598  0.999828      0.002607         0.159281
2  0.022774   0.047465 -0.022764  -0.043465  0.00001    0.004  0.000434  0.001889  1.000000      0.000000  1.000000      0.000007         0.131615
3  0.031607   0.045450 -0.031597  -0.041450  0.00001    0.004  0.000457  0.002006  1.000000      0.000000  1.000000      0.000006         0.138400
--------------------------------------------------
